200              
angstrom
N      -1.18980000     1.70430000    -0.09430000
N      -1.66980000    -1.25660000    -0.07960000
N       1.74440000     1.22960000     0.03670000
N       1.26940000    -1.70350000     0.07830000
C      -2.53400000     1.66120000    -0.13490000
C      -2.93270000    -0.79780000    -0.13880000
C      -0.73630000     2.96970000    -0.08840000
C      -1.63250000    -2.59920000    -0.05670000
C      -3.36370000     0.53370000    -0.16090000
C      -2.97690000     2.98200000    -0.14920000
C      -3.76460000    -1.91520000    -0.16870000
C      -1.85610000     3.79760000    -0.12160000
C      -2.95310000    -3.03880000    -0.11920000
C       0.59410000     3.40330000    -0.05460000
C      -0.50030000    -3.41830000     0.02690000
C       1.72250000     2.57520000     0.00150000
C       0.82670000    -2.97520000     0.10100000
C       3.01320000     0.78680000     0.10590000
C       2.61240000    -1.67480000     0.17000000
C       3.44100000    -0.54560000     0.17470000
C       3.04060000     3.02270000     0.04130000
C       1.93750000    -3.80730000     0.21810000
C       3.85040000     1.90030000     0.10760000
C       3.05660000    -2.99220000     0.26240000
H      -4.37480000     0.69710000    -0.19830000
H      -0.61360000     0.92670000    -0.07480000
H      -0.88120000    -0.69630000    -0.05130000
H      -3.94760000     3.29930000    -0.17540000
H      -4.78510000    -1.91490000    -0.21540000
H      -1.85860000     4.81890000    -0.12440000
H      -3.27310000    -4.00880000    -0.12370000
H       0.75440000     4.41500000    -0.06760000
H      -0.65990000    -4.42990000     0.04110000
H       4.45060000    -0.70740000     0.23710000
H       3.35880000     3.99330000     0.02820000
H       1.93570000    -4.82760000     0.26610000
H       4.87100000     1.90020000     0.15200000
H       4.02420000    -3.30770000     0.34900000
X     -1.18954693     1.70396763    -0.09397517
X     -1.86190000     1.68275000    -0.11460000
X     -0.96305000     2.33700000    -0.09135000
X     -0.70003000     1.04334000    -0.07772500
X     -1.16258926     1.69872099    -0.98928075
X     -1.66945868    -1.25637599    -0.07993667
X     -2.30125000    -1.02720000    -0.10920000
X     -1.65115000    -1.92790000    -0.06815000
X     -0.99949000    -0.78034500    -0.05554500
X     -1.70655259    -1.24236675     0.81474228
X      1.74387619     1.22952704     0.03668194
X      1.73345000     1.90240000     0.01910000
X      2.37842595     0.94482286    -0.32738216
X      2.34193120     0.96501657     0.47097505
X      1.19956610     0.83512086     0.02184367
X      1.26937291    -1.70297633     0.07822881
X      0.96739536    -2.30423563     0.48388491
X      1.02239074    -2.33761315    -0.31346033
X      1.94090000    -1.68915000     0.12415000
X      0.87558786    -1.15978291     0.02825878
X     -2.57780501     1.65918298    -0.13241648
X     -2.94885000     1.09745000    -0.14790000
X     -2.76279118     2.31476942    -0.54557649
X     -2.78758829     2.31517897     0.26026838
X     -2.97600066    -0.79452249    -0.14538983
X     -3.16469110    -0.13069670     0.25329872
X     -3.12984762    -0.13279951    -0.55291985
X     -3.34865000    -1.35650000    -0.15375000
X     -0.71900266     3.00986961    -0.08436023
X     -1.29417704     3.40253985     0.29781903
X     -1.27305561     3.39882114    -0.50731613
X     -0.07110000     3.18650000    -0.07150000
X     -1.64156806    -2.64184551    -0.06201463
X     -2.29280000    -2.81900000    -0.08795000
X     -1.09014521    -3.00052097     0.38730965
X     -1.04249279    -3.01675459    -0.41710458
X     -3.40631488     0.54418005    -0.16270441
X     -4.22313499     0.67259000    -0.19269000
X     -3.01280474     3.00728876    -0.14986584
X     -2.41650000     3.38980000    -0.13540000
X     -3.80199499     3.25170500    -0.17147000
X     -3.80669482    -1.92748146    -0.17121145
X     -3.39926758    -2.48127736     0.42156165
X     -3.34572908    -2.49248541    -0.71055687
X     -4.63202499    -1.91494500    -0.20839500
X     -1.86864725     3.83969115    -0.12172999
X     -1.85822500     4.66570499    -0.12398000
X     -2.97752819    -3.07526860    -0.12075556
X     -3.22510000    -3.86329999    -0.12302500
X      0.60522238     3.44578955    -0.05481378
X      1.15064090     2.94044286    -0.59294322
X      1.11102408     2.96317225     0.53942440
X      0.73035500     4.26324499    -0.06565000
X     -0.50207918    -3.46218564     0.02690195
X      0.16320000    -3.19675000     0.06395000
X     -0.63596000    -4.27815999     0.03897000
X      1.72295407     2.61910232     0.00027707
X      2.38155000     2.79895000     0.02140000
X      0.82030084    -3.01865295     0.10091918
X      1.38210000    -3.39125000     0.15955000
X      3.05654190     0.77991000     0.10766700
X      3.22710000     0.12060000     0.14030000
X      3.43180000     1.34355000     0.10675000
X      2.65503851    -1.68508712     0.17229077
X      3.05385937    -1.12845365    -0.23025220
X      2.99810284    -1.09089069     0.57480336
X      2.83450000    -2.33350000     0.21620000
X      3.48477581    -0.54839003     0.17693807
X      4.29915999    -0.68313000     0.22774000
X      3.06497357     3.05923807     0.04118407
X      3.43651027     2.48846092     0.64067652
X      3.48363279     2.45560105    -0.49117468
X      3.31107000     3.84770999     0.03016500
X      1.94908278    -3.84959975     0.22048447
X      2.54835815    -3.43958680    -0.32290981
X      2.46635131    -3.38836067     0.80619730
X      1.93597000    -4.67455499     0.25890000
X      3.89281462     1.91162332     0.10897734
X      4.71790999     1.90021500     0.14534000
X      3.09299051    -3.01655016     0.26585189
X      3.87905999    -3.26037500     0.33601000
He     -1.17847965     1.68860757    -0.07399737
He     -1.16258926     1.69872099    -0.98928075
He     -1.65239963    -1.24554739    -0.09861753
He     -1.70655259    -1.24236675     0.81474228
He      1.73196040     1.20446561     0.03704412
He      1.19956610     0.83512086     0.02184367
He      1.24662561    -1.68865701     0.07139983
He      0.87558786    -1.15978291     0.02825878
He     -2.57049539     1.66144363    -0.13378568
He     -1.86190000     1.68275000    -0.11460000
He     -2.96873211    -0.79416057    -0.14345363
He     -2.30125000    -1.02720000    -0.10920000
He     -0.72456894     3.00419764    -0.08605262
He     -0.96305000     2.33700000    -0.09135000
He     -1.63933854    -2.63489914    -0.06016703
He     -1.65115000    -1.92790000    -0.06815000
He     -3.39921764     0.54203497    -0.16239690
He     -2.93204605     1.07198635     0.42010119
He     -2.89059640     1.06761238    -0.71294191
He     -3.14820000    -0.13205000    -0.14985000
He     -3.00716898     3.00241336    -0.14974605
He     -2.75545000     2.32160000    -0.14205000
He     -3.80018190    -1.92311416    -0.17082344
He     -3.33749164    -1.34964010    -0.72056896
He     -3.39107684    -1.34003573     0.41139086
He     -1.86583607     3.83279116    -0.12167646
He     -1.29620000     3.38365000    -0.10500000
He     -2.41110365     3.40156076    -0.70207764
He     -2.44155359     3.40507300     0.43066540
He     -2.97147357    -3.07033187    -0.12036962
He     -2.25814837    -2.84272023    -0.65328651
He     -2.31534877    -2.83177506     0.47835125
He     -3.35885000    -2.47700000    -0.14395000
He      0.59821896     3.43957825    -0.05497066
He     -0.07444765     3.15253226     0.49601834
He     -0.03859832     3.13080939    -0.63637545
He     -0.50854606    -3.45386716     0.02645872
He     -1.06640000    -3.00875000    -0.01490000
He      1.72705109     2.61141738     0.00060365
He      1.69886331     1.91236007     0.42136458
He      1.72835428     1.89175657    -0.38459913
He      1.15830000     2.98925000    -0.02655000
He      0.82405209    -3.01161673     0.10084078
He      1.04805000    -2.33935000     0.08965000
He      0.13440498    -3.17783345     0.46650158
He      0.19124060    -3.21338144    -0.33875571
He      3.04781978     0.77531140     0.10754256
He      2.37880000     1.00820000     0.07130000
He      2.64866261    -1.67856242     0.17202040
He      1.96839060    -1.68794951    -0.27884154
He      1.91268284    -1.65015276     0.52520157
He      3.47729496    -0.54910582     0.17659729
He      3.15076771     0.12518176     0.70366767
He      3.21307411     0.08680062    -0.42705493
He      3.02670000    -1.11020000     0.17235000
He      3.06072804     3.05316418     0.04119839
He      2.38155000     2.79895000     0.02140000
He      1.94757904    -3.84233635     0.22012042
He      1.38210000    -3.39125000     0.15955000
He      3.88563029     1.90982585     0.10874002
He      3.48363279     2.45560105    -0.49117468
He      3.43651027     2.48846092     0.64067652
He      3.43180000     1.34355000     0.10675000
He      3.08713507    -3.01201299     0.26527570
He      2.46635131    -3.38836067     0.80619730
He      2.54835815    -3.43958680    -0.32290981
He      2.83450000    -2.33350000     0.21620000
He     -4.22313502     0.67259000    -0.19269000
He     -0.70002999     1.04333998    -0.07772500
He     -0.99948998    -0.78034499    -0.05554500
He     -3.80199502     3.25170501    -0.17147000
He     -4.63202502    -1.91494500    -0.20839500
He     -1.85822500     4.66570502    -0.12398000
He     -3.22510001    -3.86330002    -0.12302500
He      0.73035500     4.26324502    -0.06565000
He     -0.63596000    -4.27816002     0.03897000
He      4.29916002    -0.68313000     0.22774000
He      3.31107001     3.84771002     0.03016500
He      1.93597000    -4.67455502     0.25890000
He      4.71791002     1.90021500     0.14534000
He      3.87906002    -3.26037501     0.33601000
