  85
 angstrom
N       0.23683800     1.39481600     0.00000000
C      -0.23683800     0.77276300     1.19755100
C       0.23683800    -0.77276300     1.19755100
N      -0.23683800    -1.39481600     0.00000000
C       0.23683800    -0.77276300    -1.19755100
C      -0.23683800     0.77276300    -1.19755100
C       1.60670200     1.92059600     0.00000000
C      -1.60670200    -1.92059600     0.00000000
H      -1.33842700     0.78228100     1.22870400
H       0.17336800     1.26499600     2.09128000
H      -0.17336800    -1.26499600     2.09128000
H       1.33842700    -0.78228100     1.22870400
H       0.17336800     1.26499600    -2.09128000
H      -1.33842700     0.78228100    -1.22870400
H       1.33842700    -0.78228100    -1.22870400
H      -0.17336800    -1.26499600    -2.09128000
H       1.75489800     2.53934400     0.89663200
H       1.75489800     2.53934400    -0.89663200
H       2.35504900     1.10178300     0.00000000
H      -1.75489800    -2.53934400     0.89663200
H      -1.75489800    -2.53934400    -0.89663200
H      -2.35504900    -1.10178300     0.00000000
X      0.23698148     1.39532535     0.00000002
X      0.00000000     1.08378950     0.59877550
X      0.00000000     1.08378950    -0.59877550
X      0.92177000     1.65770600     0.00000000
X     -0.12570905     2.01119369     0.00000000
X     -0.25335617     0.78704707     1.23565914
X      0.00000000     0.00000000     1.19755100
X     -1.17318864     0.78085330     1.22403105
X      0.11183710     1.19116105     1.95722064
X      0.25322161    -0.78699815     1.23573546
X      0.00000000    -1.08378950     0.59877550
X     -0.11183710    -1.19116105     1.95722064
X      1.17318864    -0.78085330     1.22403105
X     -0.23698441    -1.39532452     0.00000046
X      0.00000000    -1.08378950    -0.59877550
X     -0.92177000    -1.65770600     0.00000000
X      0.12570905    -2.01119369     0.00000000
X      0.25315554    -0.78714927    -1.23570710
X      0.00000000     0.00000000    -1.19755100
X      1.17318864    -0.78085330    -1.22403105
X     -0.11183710    -1.19116105    -1.95722064
X     -0.25328199     0.78709482    -1.23567329
X      0.11183710     1.19116105    -1.95722064
X     -1.17318864     0.78085330    -1.22403105
X      1.64352116     1.94454312    -0.00000014
X      1.73266860     2.44653180     0.76213719
X      1.73266860     2.44653180    -0.76213719
X      2.24279695     1.22460495     0.00000000
X     -1.64352622    -1.94453533     0.00000034
X     -1.73266860    -2.44653180     0.76213719
X     -1.73266860    -2.44653180    -0.76213719
X     -2.24279695    -1.22460495     0.00000000
He      0.23081756     1.42220859     0.00000184
He     -0.25080970     0.78735369     1.22796676
He      0.00000000     1.08378950     0.59877550
He      0.25053060    -0.78368907     1.22958767
He      0.00000000     0.00000000     1.19755100
He     -0.24384334    -1.42197340     0.00002430
He      0.00000000    -1.08378950     0.59877550
He      0.12570905    -2.01119369     0.00000000
He      0.25058987    -0.78386254    -1.22950254
He      0.00000000    -1.08378950    -0.59877550
He     -0.25074741     0.78739003    -1.22797785
He      0.00000000     1.08378950    -0.59877550
He      0.00000000     0.00000000    -1.19755100
He      1.63617331     1.94215189    -0.00000008
He      0.92177000     1.65770600     0.00000000
He     -1.63758381    -1.94007750     0.00000073
He     -0.92177000    -1.65770600     0.00000000
He     -1.17318868     0.78085330     1.22403105
He      0.11183711     1.19116106     1.95722067
He     -0.11183711    -1.19116106     1.95722067
He      1.17318868    -0.78085330     1.22403105
He      0.11183711     1.19116106    -1.95722067
He     -1.17318868     0.78085330    -1.22403105
He      1.17318868    -0.78085330    -1.22403105
He     -0.11183711    -1.19116106    -1.95722067
He      1.73266860     2.44653181     0.76213722
He      1.73266860     2.44653181    -0.76213722
He      2.24279697     1.22460493     0.00000000
He     -1.73266860    -2.44653181     0.76213722
He     -1.73266860    -2.44653181    -0.76213722
He     -2.24279697    -1.22460493     0.00000000
