22

N  0.2368380000  1.3948160000  0.0000000000    
C -0.2368380000  0.7727630000  1.1975510000 
C  0.2368380000 -0.7727630000  1.1975510000 
N -0.2368380000 -1.3948160000  0.0000000000 
C  0.2368380000 -0.7727630000 -1.1975510000 
C -0.2368380000  0.7727630000 -1.1975510000 
C  1.6067020000  1.9205960000  0.0000000000 
C -1.6067020000 -1.9205960000  0.0000000000 
H -1.3384270000  0.7822810000  1.2287040000 
H  0.1733680000  1.2649960000  2.0912800000 
H -0.1733680000 -1.2649960000  2.0912800000 
H  1.3384270000 -0.7822810000  1.2287040000 
H  0.1733680000  1.2649960000 -2.0912800000 
H -1.3384270000  0.7822810000 -1.2287040000 
H  1.3384270000 -0.7822810000 -1.2287040000 
H -0.1733680000 -1.2649960000 -2.0912800000 
H  1.7548980000  2.5393440000  0.8966320000 
H  1.7548980000  2.5393440000 -0.8966320000 
H  2.3550490000  1.1017830000  0.0000000000 
H -1.7548980000 -2.5393440000  0.8966320000 
H -1.7548980000 -2.5393440000 -0.8966320000 
H -2.3550490000 -1.1017830000  0.0000000000 
