35               
angstrom
S       0.00000000     0.00000000     0.37027000
O       0.00000000     1.27762000    -0.37027000
O       0.00000000    -1.27762000    -0.37027000
X      0.00027625    -0.00038448     0.37003359
X      0.03187405     0.00095310     0.12734506
X      0.10722452    -0.19813455     0.46657676
X      0.09988784     0.20196747     0.46650382
X     -0.23961245    -0.00370830     0.42127501
X      0.43996038     0.66486253     0.04494724
X     -0.43999114     0.66473157     0.04472131
X     -0.43995751    -0.66487472     0.04496828
X      0.43998971    -0.66473766     0.04473181
X      0.00000000     0.00000000     1.10863176
X     -0.00000510     1.27904183    -0.37097613
X      0.00009286     1.37486300    -0.93869101
X     -0.00017089     1.81918699    -0.17211901
X     -0.00000551    -1.27904205    -0.37097568
X      0.00009784    -1.81918700    -0.17211899
X     -0.00008156    -1.37486299    -0.93869101
He      0.00030286     0.00032313     0.36998036
He      0.10615108     0.20137909     0.46779606
He      0.03213675    -0.00060566     0.12470986
He      0.10303262    -0.20311706     0.46753592
He     -0.24224000     0.00149178     0.42175277
He      0.00000000     0.00000000     1.10863176
He     -0.00013138     1.29949105    -0.38095550
He     -0.43999114     0.66473157     0.04472131
He      0.43996038     0.66486253     0.04494724
He      0.00009286     1.37486300    -0.93869101
He     -0.00017089     1.81918699    -0.17211901
He     -0.00011636    -1.29948534    -0.38096735
He      0.43998971    -0.66473766     0.04473181
He     -0.43995751    -0.66487472     0.04496828
He      0.00009784    -1.81918700    -0.17211899
He     -0.00008156    -1.37486299    -0.93869101
