  85
 angstrom
N       0.84924700     1.07857500     0.00000000
C       0.15175200     0.63877100     1.19995800
C       0.15175200    -0.91902300     1.23709700
N      -0.46712900    -1.38265400     0.00000000
C       0.15175200    -0.91902300    -1.23709700
C       0.15175200     0.63877100    -1.19995800
C       1.09889200     2.53197200     0.00000000
C      -1.83802200    -1.87893700     0.00000000
H      -0.90018100     0.99994400     1.25434600
H       0.68672500     0.99536500     2.09408900
H      -0.41200100    -1.30900200     2.09569000
H       1.19376300    -1.27668700     1.25615900
H       0.68672500     0.99536500    -2.09408900
H      -0.90018100     0.99994400    -1.25434600
H       1.19376300    -1.27668700    -1.25615900
H      -0.41200100    -1.30900200    -2.09569000
H       1.68551200     2.79543200     0.89331200
H       0.15782200     3.12032500     0.00000000
H       1.68551200     2.79543200    -0.89331200
H      -2.01157700    -2.47502800    -0.90684800
H      -2.52439300    -1.00700600     0.00000000
H      -2.01157700    -2.47502800     0.90684800
X      0.84963403     1.07893588     0.00000000
X      0.50049950     0.85867300     0.59997900
X      0.50049950     0.85867300    -0.59997900
X      0.97406950     1.80527350     0.00000000
X      1.50011912     0.75250446     0.00000000
X      0.14029915     0.65782860     1.23783616
X      0.15175200    -0.14012600     1.21852750
X     -0.74239104     0.94576805     1.24618780
X      0.60647905     0.94187590     1.95996934
X      0.16327559    -0.93756428     1.27520924
X     -0.15768850    -1.15083850     0.61854850
X     -0.32743805    -1.25050515     1.96690104
X      1.03746134    -1.22303740     1.25329970
X     -0.46757321    -1.38294158    -0.00000152
X     -0.15768850    -1.15083850    -0.61854850
X     -1.15257550    -1.63079550     0.00000000
X     -0.25197582    -2.07915972     0.00000000
X      0.16315042    -0.93761699    -1.27522120
X      0.15175200    -0.14012600    -1.21852750
X      1.03746134    -1.22303740    -1.25329970
X     -0.32743805    -1.25050515    -1.96690104
X      0.14039875     0.65779977    -1.23788062
X      0.60647905     0.94187590    -1.95996934
X     -0.74239104     0.94576805    -1.24618780
X      1.11051817     2.57432702    -0.00000006
X      1.59751900     2.75591300     0.75931519
X      0.29898251     3.03207205     0.00000000
X      1.59751900     2.75591300    -0.75931519
X     -1.87703424    -1.89911520     0.00000082
X     -1.98554375    -2.38561435    -0.77082079
X     -2.42143735    -1.13779566     0.00000000
X     -1.98554375    -2.38561435     0.77082079
He      0.87080787     1.09651178    -0.00000163
He      1.50011912     0.75250446     0.00000000
He      0.14180978     0.65388822     1.23167293
He      0.50049950     0.85867300     0.59997900
He      0.16084288    -0.93704374     1.26752435
He      0.15175200    -0.14012600     1.21852750
He     -0.46774585    -1.41069357    -0.00003906
He     -0.15768850    -1.15083850     0.61854850
He      0.16080003    -0.93712321    -1.26748993
He     -0.15768850    -1.15083850    -0.61854850
He      0.14187269     0.65383520    -1.23171779
He      0.50049950     0.85867300    -0.59997900
He      0.15175200    -0.14012600    -1.21852750
He      1.10845060     2.56721186    -0.00000009
He      0.97406950     1.80527350     0.00000000
He     -1.86933503    -1.89771754     0.00000007
He     -1.15257550    -1.63079550     0.00000000
He     -0.74239108     0.94576806     1.24618780
He      0.60647906     0.94187591     1.95996937
He     -0.32743806    -1.25050516     1.96690107
He      1.03746137    -1.22303741     1.25329970
He      0.60647906     0.94187591    -1.95996937
He     -0.74239108     0.94576806    -1.24618780
He      1.03746137    -1.22303741    -1.25329970
He     -0.32743806    -1.25050516    -1.96690107
He      1.59751901     2.75591301     0.75931522
He      0.29898248     3.03207206     0.00000000
He      1.59751901     2.75591301    -0.75931522
He     -1.98554375    -2.38561436    -0.77082082
He     -2.42143737    -1.13779563     0.00000000
He     -1.98554375    -2.38561436     0.77082082
